@<TRIPOS>MOLECULE
OCT
   27    26     1     0     0
SMALL
bcc


@<TRIPOS>ATOM
      1 C            5.6760    -1.3430    -0.5230 c3         1 OCT      -0.093100
      2 C1           4.8740    -0.0680    -0.7340 c3         1 OCT      -0.079400
      3 C2           5.5440     1.1750    -0.1450 c3         1 OCT      -0.078400
      4 C3           5.6560     1.1380     1.3820 c3         1 OCT      -0.079400
      5 C4           6.1730     2.4540     1.9750 c3         1 OCT      -0.079400
      6 C5           7.6230     2.7560     1.5890 c3         1 OCT      -0.080400
      7 C6           8.1820     4.0150     2.2620 c3         1 OCT      -0.122400
      8 C7           7.4480     5.3080     1.9210 c3         1 OCT       0.127400
      9 O            7.4380     5.5390     0.5200 oh         1 OCT      -0.600800
     10 H            5.2070    -2.1750    -1.0580 hc         1 OCT       0.032700
     11 H1           5.7250    -1.6150     0.5350 hc         1 OCT       0.032700
     12 H2           6.6980    -1.2320    -0.9010 hc         1 OCT       0.032700
     13 H3           3.8710    -0.1920    -0.3080 hc         1 OCT       0.038700
     14 H4           4.7430     0.0870    -1.8120 hc         1 OCT       0.038700
     15 H5           4.9580     2.0540    -0.4410 hc         1 OCT       0.038200
     16 H6           6.5360     1.2890    -0.5960 hc         1 OCT       0.038200
     17 H7           6.3120     0.3190     1.6970 hc         1 OCT       0.041200
     18 H8           4.6650     0.9360     1.8080 hc         1 OCT       0.041200
     19 H9           6.1000     2.3930     3.0680 hc         1 OCT       0.040200
     20 H10          5.5150     3.2700     1.6580 hc         1 OCT       0.040200
     21 H11          7.7170     2.8580     0.5030 hc         1 OCT       0.039200
     22 H12          8.2540     1.9050     1.8760 hc         1 OCT       0.039200
     23 H13          9.2290     4.1160     1.9480 hc         1 OCT       0.053200
     24 H14          8.1860     3.8790     3.3500 hc         1 OCT       0.053200
     25 H15          7.9590     6.1530     2.3920 h1         1 OCT       0.044200
     26 H16          6.4170     5.3030     2.2880 h1         1 OCT       0.044200
     27 H17          6.8330     4.8920     0.1180 ho         1 OCT       0.397000
@<TRIPOS>BOND
     1     1     2 1   
     2     1    10 1   
     3     1    11 1   
     4     1    12 1   
     5     2     3 1   
     6     2    13 1   
     7     2    14 1   
     8     3     4 1   
     9     3    15 1   
    10     3    16 1   
    11     4     5 1   
    12     4    17 1   
    13     4    18 1   
    14     5     6 1   
    15     5    19 1   
    16     5    20 1   
    17     6     7 1   
    18     6    21 1   
    19     6    22 1   
    20     7     8 1   
    21     7    23 1   
    22     7    24 1   
    23     8     9 1   
    24     8    25 1   
    25     8    26 1   
    26     9    27 1   
@<TRIPOS>SUBSTRUCTURE
     1 OCT         1 TEMP              0 ****  ****    0 ROOT
